
 OpenBabel09092215583D

 18 18  0  0  0  0  0  0  0  0999 V2000
   -4.1412    1.9660    0.2547 C   0  0  0  0  0  0  0  0  0  0  0  0
   -2.8238    2.5706   -0.2232 C   0  0  0  0  0  0  0  0  0  0  0  0
   -1.6245    1.7277    0.2030 C   0  0  0  0  0  0  0  0  0  0  0  0
   -2.7193    3.5866    0.1740 H   0  0  0  0  0  0  0  0  0  0  0  0
   -2.8387    2.6554   -1.3169 H   0  0  0  0  0  0  0  0  0  0  0  0
   -4.2852    0.5132   -0.1893 C   0  0  0  0  0  0  0  0  0  0  0  0
   -4.9799    2.5555   -0.1323 H   0  0  0  0  0  0  0  0  0  0  0  0
   -4.1912    2.0190    1.3495 H   0  0  0  0  0  0  0  0  0  0  0  0
   -3.0948   -0.3275    0.2629 C   0  0  0  0  0  0  0  0  0  0  0  0
   -4.3671    0.4719   -1.2827 H   0  0  0  0  0  0  0  0  0  0  0  0
   -5.2113    0.0921    0.2171 H   0  0  0  0  0  0  0  0  0  0  0  0
   -1.7744    0.2680   -0.2181 C   0  0  0  0  0  0  0  0  0  0  0  0
   -3.1989   -1.3500   -0.1166 H   0  0  0  0  0  0  0  0  0  0  0  0
   -3.0888   -0.3916    1.3582 H   0  0  0  0  0  0  0  0  0  0  0  0
   -1.7208    0.1972   -1.3116 H   0  0  0  0  0  0  0  0  0  0  0  0
   -0.9388   -0.3180    0.1809 H   0  0  0  0  0  0  0  0  0  0  0  0
   -1.5119    1.7813    1.2930 H   0  0  0  0  0  0  0  0  0  0  0  0
   -0.7091    2.1439   -0.2327 H   0  0  0  0  0  0  0  0  0  0  0  0
  1  2  1  0  0  0  0
  1  6  1  0  0  0  0
  1  7  1  0  0  0  0
  1  8  1  0  0  0  0
  2  3  1  0  0  0  0
  2  4  1  0  0  0  0
  2  5  1  0  0  0  0
  3 17  1  0  0  0  0
  3 18  1  0  0  0  0
  6  9  1  0  0  0  0
  6 10  1  0  0  0  0
  6 11  1  0  0  0  0
  9 12  1  0  0  0  0
  9 13  1  0  0  0  0
  9 14  1  0  0  0  0
 12  3  1  0  0  0  0
 12 15  1  0  0  0  0
 12 16  1  0  0  0  0
M  END
